System Matpower Format/npcc_ny_lite_s1_ny_only_equiv.m
function mpc = npcc_ny_lite_s1_ny_only_equiv
%NPCC_NY_LITE_S1_NY_ONLY_EQUIV

%% MATPOWER Case Format : Version 2
mpc.version = '2';

%%-----  Power Flow Data  -----%%
%% system MVA base
mpc.baseMVA = 100;

%% bus data
%	bus_i	type	Pd	Qd	Gs	Bs	area	Vm	Va	baseKV	zone	Vmax	Vmin
mpc.bus = [
	37	1	0	0	0	0	2	1.02100313	20.9632212	345	70	1.1	0.9;
	38	1	0	0	0	0	2	1.0319714	25.4159296	345	70	1.1	0.9;
	39	1	0	0	0	0	2	0.999498185	16.3197795	345	71	1.1	0.9;
	40	1	0	0	0	0	2	1.0474538	17.8759997	230	70	1.1	0.9;
	41	1	809.143671	125	0	0	2	1.06962395	13.5125484	115	70	1.1	0.9;
	42	2	204.597757	17	0	0	2	1.1	14.059003	115	70	1.1	0.9;
	43	1	0	0	0	0	2	1.0573451	30.7470796	345	69	1.1	0.9;
	44	1	0	0	0	0	2	1.06365915	27.6578363	230	69	1.1	0.9;
	45	1	295.9154	17	0	0	2	1.0620279	25.2592985	115	69	1.1	0.9;
	46	1	26.5861492	-42.5	0	0	2	1.09322039	26.9887306	115	68	1.1	0.9;
	47	2	610.325512	100	0	0	2	1.09999999	33.2210683	230	68	1.1	0.9;
	48	2	0	0	0	0	2	1.1	29.3915448	230	68	1.1	0.9;
	49	1	240.431262	17	0	0	2	1.00362111	13.6126662	115	68	1.1	0.9;
	50	2	0	0	0	0	2	1.1	40.9452925	345	67	1.1	0.9;
	51	2	844.977176	75	0	0	2	1.08300607	35.289283	115	67	1.1	0.9;
	52	1	0	0	0	0	2	1.08574763	44.7559085	345	66	1.1	0.9;
	53	2	1066.91373	250	0	0	2	1.09999998	44.3216212	115	66	1.1	0.9;
	54	2	20	0	0	0	2	1.05172033	49.3454807	230	65	1.1	0.9;
	55	2	939	132	0	0	2	1.08981247	46.4205077	230	65	1.1	0.9;
	56	2	198.818159	44	0	0	2	1.1	52.4187892	230	65	1.1	0.9;
	57	2	277.420687	-6	0	0	2	1.0934149	43.3867497	115	65	1.1	0.9;
	58	1	97.0972405	38	0	0	2	1.06484475	44.9464439	230	65	1.1	0.9;
	59	1	814.923268	198	0	0	2	1.05436325	41.5897674	115	65	1.1	0.9;
	60	2	0	0	0	0	2	1.09860245	41.3163884	230	65	1.1	0.9;
	61	2	273.952928	8	0	0	2	1.05145966	34.9045199	115	65	1.1	0.9;
	62	1	0	0	0	0	2	1.06290223	44.8237179	230	65	1.1	0.9;
	63	1	0	0	0	0	2	1.05838751	39.1077928	230	67	1.1	0.9;
	64	1	165.296493	25	0	0	2	1.05841767	36.0757972	115	67	1.1	0.9;
	65	2	105.188677	0	0	0	2	1.07077891	37.8953042	115	67	1.1	0.9;
	66	1	0	0	0	0	2	1.07348882	43.3369251	345	67	1.1	0.9;
	67	1	0	0	0	0	2	1.06437504	38.7273037	230	67	1.1	0.9;
	68	2	243.899021	41	0	0	2	1.1	34.2192684	115	67	1.1	0.9;
	69	1	0	0	0	0	2	1.07231486	38.2580433	345	67	1.1	0.9;
	70	1	0	0	0	0	2	1.08706745	39.920033	230	67	1.1	0.9;
	71	2	428.846145	53	0	0	2	1.1	40.9276046	115	67	1.1	0.9;
	72	2	0	0	0	0	2	1.08884679	38.8425171	115	67	1.1	0.9;
	73	1	0	0	0	0	3	0.977954429	10.347898	345	71	1.1	0.9;
	74	1	117.903792	0	0	0	3	0.974926849	1.57237472	345	73	1.1	0.9;
	75	1	0	0	0	0	3	0.968782604	-0.588157838	138	71	1.1	0.9;
	76	1	0	0	0	0	3	0.972794501	0.262818089	345	71	1.1	0.9;
	77	1	0	0	0	0	3	0.977818902	1.06435512	345	73	1.1	0.9;
	78	3	2311.83906	600	0	0	3	0.974721326	0	345	72	1.1	0.9;
	79	2	0	0	0	0	3	0.980677999	5.29361657	22	74	1.1	0.9;
	80	2	809.143671	25	0	0	3	0.952721175	-8.35509986	138	75	1.1	0.9;
	81	1	0	0	0	0	3	0.950759831	-6.11493981	345	74	1.1	0.9;
	82	2	0	0	0	0	3	0.997173511	11.2863449	22	74	1.1	0.9;
];

%% generator data
%	bus	Pg	Qg	Qmax	Qmin	Vg	mBase	status	Pmax	Pmin	Pc1	Pc2	Qc1min	Qc1max	Qc2min	Qc2max	ramp_agc	ramp_10	ramp_30	ramp_q	apf
mpc.gen = [
	42	398.790277	349.52573	999	-999	1.1	400	1	568.003995	0	0	0	0	0	0	0	0	0	0	0	0;
	47	944.920662	70.3444442	999	-999	1.09999999	450	1	944.920662	0	0	0	0	0	0	0	0	0	0	0	0;
	48	40.0600456	132.871442	999	-999	1.1	500	1	40.0600457	0	0	0	0	0	0	0	0	0	0	0	0;
	50	1785.45753	448.554516	999	-999	1.1	700	1	1785.45753	0	0	0	0	0	0	0	0	0	0	0	0;
	51	4.30367365e-07	44.8515469	999	-999	1.08300607	150	1	473.126358	0	0	0	0	0	0	0	0	0	0	0	0;
	53	1246.75388	242.955128	999	-999	1.09999998	100	1	1246.75388	0	0	0	0	0	0	0	0	0	0	0	0;
	54	800	0.470267887	999	-999	1.05172033	650	1	800	0	0	0	0	0	0	0	0	0	0	0	0;
	54	800	65.0449814	9999	-9999	1.05172033	650	1	800	0	0	0	0	0	0	0	0	0	0	0	0;
	55	800	416.208953	999	-999	1.08981247	1200	1	800	0	0	0	0	0	0	0	0	0	0	0	0;
	56	2008.56918	123.109611	999	-999	1.1	500	1	2008.56918	0	0	0	0	0	0	0	0	0	0	0	0;
	57	58.0820775	88.7434425	999	-999	1.0934149	350	1	58.0820776	0	0	0	0	0	0	0	0	0	0	0	0;
	60	2.66180453e-07	202.606111	999	-999	1.09860245	450	1	241.530822	0	0	0	0	0	0	0	0	0	0	0	0;
	61	2.32602822e-07	-23.9178436	999	-999	1.05145966	200	1	536.638127	0	0	0	0	0	0	0	0	0	0	0	0;
	65	2.42127141e-08	27.6861952	999	-999	1.07077891	100	1	12.0864155	0	0	0	0	0	0	0	0	0	0	0	0;
	68	2.56178694e-07	172.280965	999	-999	1.1	100	1	437.870205	0	0	0	0	0	0	0	0	0	0	0	0;
	71	1039.81975	94.1098296	999	-999	1.1	100	1	1039.81975	0	0	0	0	0	0	0	0	0	0	0	0;
	72	3.09294094e-07	-17.3485866	999	-999	1.08884679	100	1	308.320782	0	0	0	0	0	0	0	0	0	0	0	0;
	78	565.099091	777.172253	999	-999	0.974721326	100	1	565.099092	0	0	0	0	0	0	0	0	0	0	0	0;
	79	577.453484	53.5038859	999	-999	0.980677999	1150	1	577.453484	0	0	0	0	0	0	0	0	0	0	0	0;
	80	584.92934	35.2376352	999	-999	0.952721175	800	1	584.929342	0	0	0	0	0	0	0	0	0	0	0	0;
	82	619.623976	123.659545	999	-999	0.997173511	500	1	619.623976	0	0	0	0	0	0	0	0	0	0	0	0;
	37	-160.397385	-22.7794135	-22.7784135	-22.7804135	1.02100313	100	1	-160.396385	-160.398385	0	0	0	0	0	0	0	0	0	0	0;
	73	364.513136	-138.758231	-138.757231	-138.759231	0.977954429	100	1	364.514136	364.512136	0	0	0	0	0	0	0	0	0	0	0;
	54	-571.504211	-201.710303	-201.709303	-201.711303	1.05172033	100	1	-571.503211	-571.505211	0	0	0	0	0	0	0	0	0	0	0;
	54	-658.425337	-229.662673	-229.661673	-229.663673	1.05172033	100	1	-658.424337	-658.426337	0	0	0	0	0	0	0	0	0	0	0;
	60	-0.000578077489	8.45386505	8.45486505	8.45286505	1.09860245	100	1	0.000421922511	-0.00157807749	0	0	0	0	0	0	0	0	0	0	0;
	66	769.214145	39.4711808	39.4721808	39.4701808	1.07348882	100	1	769.215145	769.213145	0	0	0	0	0	0	0	0	0	0	0;
	67	-259.478734	-138.974834	-138.973834	-138.975834	1.06437504	100	1	-259.477734	-259.479734	0	0	0	0	0	0	0	0	0	0	0;
	75	-189.800915	-48.5528587	-48.5518587	-48.5538587	0.968782603	100	1	-189.799915	-189.801915	0	0	0	0	0	0	0	0	0	0	0;
	81	-358.705191	-56.9391965	-56.9381965	-56.9401965	0.950759831	100	1	-358.704191	-358.706191	0	0	0	0	0	0	0	0	0	0	0;
	48	-43.400655	-63.9130039	-63.9120039	-63.9140039	1.1	100	1	-43.399655	-43.401655	0	0	0	0	0	0	0	0	0	0	0;
];

%% branch data
%	fbus	tbus	r	x	b	rateA	rateB	rateC	ratio	angle	status	angmin	angmax
mpc.branch = [
	37	38	0.0016	0.0163	0.25	2500	0	0	0	0	1	-360	360;
	37	39	0.0008	0.0074	0.48	2500	0	0	0	0	1	-360	360;
	37	40	0.0009	0.0315	0.06	2500	0	0	0	0	1	-360	360;
	37	43	0.0013	0.0188	1.31	2500	0	0	0	0	1	-360	360;
	38	69	0.0043	0.0485	0.79	2500	0	0	0	0	1	-360	360;
	39	73	0.0019	0.0183	0.29	2500	0	0	0	0	1	-360	360;
	39	73	0.0019	0.0183	0.29	2500	0	0	0	0	1	-360	360;
	40	44	0.008	0.053	0.4	2500	0	0	0	0	1	-360	360;
	41	42	0.0018	0.0089	0.07	2500	0	0	0	0	1	-360	360;
	41	45	0.0776	0.2241	0.13	2500	0	0	0	0	1	-360	360;
	43	44	0	0.011	0	2500	0	0	0	0	1	-360	360;
	43	50	0.0025	0.0268	0.4	2500	0	0	0	0	1	-360	360;
	43	50	0.0025	0.0268	0.4	2500	0	0	0	0	1	-360	360;
	44	45	0	0.0205	0	2500	0	0	0	0	1	-360	360;
	44	48	0.015	0.105	0.79	2500	0	0	0	0	1	-360	360;
	45	46	0.1235	0.3548	0.16	2500	0	0	0	0	1	-360	360;
	45	51	0.0605	0.1896	0.08	2500	0	0	0	0	1	-360	360;
	45	71	0.1751	0.5575	0.12	2500	0	0	0	0	1	-360	360;
	46	47	0.0632	0.121	0.05	2500	0	0	0	0	1	-360	360;
	46	49	0.164	0.578	0.06	2500	0	0	0	0	1	-360	360;
	47	48	0	0.033	0	2500	0	0	0	0	1	-360	360;
	50	51	0	0.0207	0	2500	0	0	0	0	1	-360	360;
	50	52	0.002	0.022	1.28	2500	0	0	0	0	1	-360	360;
	51	53	0.0844	0.2161	0.22	2500	0	0	0	0	1	-360	360;
	51	72	0.0051	0.0232	0.3	2500	0	0	0	0	1	-360	360;
	52	53	0.0014	0.0388	0	2500	0	0	0	0	1	-360	360;
	53	55	0.03	0.107	0.3	789.941803	0	0	0	0	1	-360	360;
	53	65	0.035	0.08	0.05	2500	0	0	0	0	1	-360	360;
	54	56	0.01	0.008	0.07	789.941803	0	0	0	0	1	-360	360;
	54	62	0.008	0.069	0.13	789.941803	0	0	0	0	1	-360	360;
	55	57	0.0074	0.04	0.02	789.941803	0	0	0	0	1	-360	360;
	55	59	0.016	0.0817	0.04	789.941803	0	0	0	0	1	-360	360;
	56	58	0.002	0.015	0.11	2500	0	0	0	0	1	-360	360;
	57	59	0.014	0.068	0.03	2500	0	0	0	0	1	-360	360;
	58	60	0.0035	0.0344	0.27	2500	0	0	0	0	1	-360	360;
	58	62	0.002	0.018	0.03	2500	0	0	0	0	1	-360	360;
	59	61	0.068	0.143	0.06	2500	0	0	0	0	1	-360	360;
	62	63	0.0129	0.0803	0.15	2500	0	0	0	0	1	-360	360;
	63	64	0	0.046	0	2500	0	0	0	0	1	-360	360;
	63	67	0.012	0.093	0.18	2500	0	0	0	0	1	-360	360;
	64	65	0.035	0.08	0.05	2500	0	0	0	0	1	-360	360;
	64	68	0.0988	0.231	0.13	2500	0	0	0	0	1	-360	360;
	66	67	0	0.0231	0	2500	0	0	0	0	1	-360	360;
	66	69	0.0018	0.0274	0.27	2500	0	0	0	0	1	-360	360;
	67	68	0	0.049	0	2500	0	0	0	0	1	-360	360;
	67	70	0.007	0.0619	0.12	2500	0	0	0	0	1	-360	360;
	68	71	0.1203	0.2048	0.07	2500	0	0	0	0	1	-360	360;
	69	71	0	0.0375	0	2500	0	0	0	0	1	-360	360;
	70	71	0	0.049	0	2500	0	0	0	0	1	-360	360;
	71	72	0.0053	0.0135	0.1	2500	0	0	0	0	1	-360	360;
	73	74	0.0022	0.0196	0.34	2500	0	0	0	0	1	-360	360;
	73	74	0.0022	0.0196	0.34	2500	0	0	0	0	1	-360	360;
	74	77	0.0003	0.0043	0.08	2500	0	0	0	0	1	-360	360;
	74	78	0.0005	0.0045	0.32	2500	0	0	0	0	1	-360	360;
	74	78	0.0005	0.0045	0.32	2500	0	0	0	0	1	-360	360;
	76	77	0.003	0.0068	1.37	2500	0	0	0	0	1	-360	360;
	78	79	0.0003	0.0153	0	2500	0	0	0	0	1	-360	360;
	78	80	0.0135	0.0582	0.5	2500	0	0	0	0	1	-360	360;
	78	81	0.0005	0.0276	0	2500	0	0	0	0	1	-360	360;
	78	82	0.0005	0.0308	0	2500	0	0	0	0	1	-360	360;
	40	41	0	0.0161	0	2500	0	0	1	0	1	-360	360;
	49	48	0.0156	0.1536	0	2500	0	0	1	0	1	-360	360;
	54	52	0.002	0.0233	0	789.941803	0	0	1	0	1	-360	360;
	54	55	0	0.013	0	2500	0	0	1	0	1	-360	360;
	56	57	0	0.142	0	2500	0	0	1	0	1	-360	360;
	58	59	0	0.0093	0	2500	0	0	1	0	1	-360	360;
	60	61	0	0.064	0	2500	0	0	1	0	1	-360	360;
	75	76	0.0001	0.0074	0	2500	0	0	1	0	1	-360	360;
];

%%-----  OPF Data  -----%%
%% generator cost data
%	1	startup	shutdown	n	x1	y1	...	xn	yn
%	2	startup	shutdown	n	c(n-1)	...	c0
mpc.gencost = [
	2	0	0	3	0	26.0833523	4319.96344;
	2	0	0	3	0	0	4974.59732;
	2	0	0	3	0	0	242.60274;
	2	0	0	3	0	2.14	47967.4763;
	2	0	0	3	0	25.4039338	5153.95508;
	2	0	0	3	0	2.14	19425.985;
	2	0	0	3	0	0	0;
	2	0	0	3	0	0	0;
	2	0	0	3	0	0	0;
	2	0	0	3	0	0	8378.83562;
	2	0	0	3	0	0	331.917808;
	2	0	0	3	0	25.0345853	3069.53459;
	2	0	0	3	0	26.3115917	3912.3145;
	2	0	0	3	0	84.6059873	0;
	2	0	0	3	0	26.5041754	6348.61943;
	2	0	0	3	0	2.14	23130.9005;
	2	0	0	3	0	26.0711283	1544.49986;
	2	0	0	3	0	29.3126221	7266.03584;
	2	0	0	3	0	26.6023139	2597.66301;
	2	0	0	3	0	33.8499079	4945.89108;
	2	0	0	3	0	27.6411935	3083.3164;
	2	0	0	2	0	0	0;
	2	0	0	2	0	0	0;
	2	0	0	2	0	0	0;
	2	0	0	2	0	0	0;
	2	0	0	2	0	0	0;
	2	0	0	2	0	0	0;
	2	0	0	2	0	0	0;
	2	0	0	2	0	0	0;
	2	0	0	2	0	0	0;
	2	0	0	2	0	0	0;
];

%% bus names
mpc.bus_name = {
	'NEW SEATHED ';
	'GILBOA      ';
	'LEEDS       ';
	'NEW SEATHED ';
	'ROTTERDAM   ';
	'ALBANY      ';
	'EDIC        ';
	'PORTER      ';
	'PORTER      ';
	'COLTON      ';
	'MOSES W     ';
	'MOSES E     ';
	'PLATTSBURGH ';
	'CLAY        ';
	'CLAY        ';
	'ROCHESTER   ';
	'ROCHESTER   ';
	'NIAGARA W   ';
	'NIAGARA E   ';
	'HUNTLEY     ';
	'HUNTLEY     ';
	'GARDENVILLE ';
	'GARDENVILLE ';
	'DUNKIRK     ';
	'DUNKIRK     ';
	'STOLLE RD   ';
	'MEYER       ';
	'MEYER       ';
	'GESONIDGE   ';
	'WATERCURE   ';
	'WRHL        ';
	'HILLSIDE    ';
	'BINGHAMTON  ';
	'BINGHAMTON  ';
	'BINGHAMTON  ';
	'LAPEER      ';
	'PLEASANT VLY';
	'MILLWOOD    ';
	'RAMAPO      ';
	'RAMAPO      ';
	'BUCHANAN    ';
	'CE UG       ';
	'RAV A-3     ';
	'NORTHPORT   ';
	'GOETHALS    ';
	'AK-3        ';
};
